<?xml version="1.0" encoding="UTF-8"?>

<!-- generated on 2023-01-16 11:55:32 by Eclipse SUMO netedit Version 1.15.0
<configuration xmlns:xsi="http://www.w3.org/2001/XMLSchema-instance" xsi:noNamespaceSchemaLocation="http://sumo.dlr.de/xsd/netconvertConfiguration.xsd">

    <input>
        <sumo-net-file value="U:\miguel\OneDrive - Universidad de la Sabana\GitHub\autonorte_sumo\AutoNorte_E5\autonorte.net.xml"/>
    </input>

    <output>
        <output-file value="U:\miguel\OneDrive - Universidad de la Sabana\GitHub\autonorte_sumo\AutoNorte_E5\autonorte.net.xml"/>
        <output.street-names value="true"/>
    </output>

    <processing>
        <geometry.min-radius.fix.railways value="false"/>
        <geometry.max-grade.fix value="false"/>
        <offset.disable-normalization value="true"/>
        <lefthand value="0"/>
    </processing>

    <junctions>
        <no-turnarounds value="true"/>
        <junctions.corner-detail value="5"/>
        <junctions.limit-turn-speed value="5.50"/>
        <rectangular-lane-cut value="0"/>
    </junctions>

    <pedestrian>
        <walkingareas value="0"/>
    </pedestrian>

    <netedit>
        <additional-files value="U:\miguel\OneDrive - Universidad de la Sabana\GitHub\autonorte_sumo\AutoNorte_E5\autonorte.additionals.xml"/>
        <route-files value="U:\miguel\OneDrive - Universidad de la Sabana\GitHub\autonorte_sumo\AutoNorte_E5\autonorte.rou.xml"/>
    </netedit>

</configuration>
-->

<net version="1.9" junctionCornerDetail="5" limitTurnSpeed="5.50" xmlns:xsi="http://www.w3.org/2001/XMLSchema-instance" xsi:noNamespaceSchemaLocation="http://sumo.dlr.de/xsd/net_file.xsd">

    <location netOffset="8246296.13,-519179.05" convBoundary="2241.80,8217.14,5514.76,21673.08" origBoundary="-74.082021,4.658723,-74.022723,4.859660" projParameter="+proj=merc +a=6378137 +b=6378137 +lat_ts=0.0 +lon_0=0.0 +x_0=0.0 +y_0=0 +k=1.0 +units=m +nadgrids=@null +wktext +no_defs"/>

    <type id="highway.bridleway" priority="1" numLanes="1" speed="2.78" allow="pedestrian" oneway="1" width="2.00"/>
    <type id="highway.bus_guideway" priority="1" numLanes="1" speed="27.78" allow="bus" oneway="1"/>
    <type id="highway.cycleway" priority="1" numLanes="1" speed="5.56" allow="bicycle" oneway="0" width="1.00"/>
    <type id="highway.footway" priority="1" numLanes="1" speed="2.78" allow="pedestrian" oneway="1" width="2.00"/>
    <type id="highway.ford" priority="1" numLanes="1" speed="2.78" allow="army" oneway="0"/>
    <type id="highway.living_street" priority="2" numLanes="1" speed="2.78" disallow="tram rail_urban rail rail_electric rail_fast ship" oneway="0"/>
    <type id="highway.motorway" priority="14" numLanes="2" speed="39.44" allow="private emergency authority army vip passenger hov taxi bus coach delivery truck trailer motorcycle evehicle custom1 custom2" oneway="1"/>
    <type id="highway.motorway_link" priority="9" numLanes="1" speed="22.22" allow="private emergency authority army vip passenger hov taxi bus coach delivery truck trailer motorcycle evehicle custom1 custom2" oneway="1"/>
    <type id="highway.path" priority="1" numLanes="1" speed="5.56" allow="pedestrian bicycle" oneway="0" width="2.00"/>
    <type id="highway.pedestrian" priority="1" numLanes="1" speed="2.78" allow="pedestrian" oneway="1" width="2.00"/>
    <type id="highway.primary" priority="12" numLanes="2" speed="27.78" disallow="tram rail_urban rail rail_electric rail_fast ship" oneway="0"/>
    <type id="highway.primary_link" priority="7" numLanes="1" speed="22.22" disallow="tram rail_urban rail rail_electric rail_fast ship" oneway="0"/>
    <type id="highway.raceway" priority="15" numLanes="2" speed="83.33" allow="vip" oneway="0"/>
    <type id="highway.residential" priority="3" numLanes="1" speed="13.89" disallow="tram rail_urban rail rail_electric rail_fast ship" oneway="0"/>
    <type id="highway.secondary" priority="11" numLanes="1" speed="27.78" disallow="tram rail_urban rail rail_electric rail_fast ship" oneway="0"/>
    <type id="highway.secondary_link" priority="6" numLanes="1" speed="22.22" disallow="tram rail_urban rail rail_electric rail_fast ship" oneway="0"/>
    <type id="highway.service" priority="1" numLanes="1" speed="5.56" allow="pedestrian delivery bicycle" oneway="0"/>
    <type id="highway.stairs" priority="1" numLanes="1" speed="1.39" allow="pedestrian" oneway="1" width="2.00"/>
    <type id="highway.step" priority="1" numLanes="1" speed="1.39" allow="pedestrian" oneway="1" width="2.00"/>
    <type id="highway.steps" priority="1" numLanes="1" speed="1.39" allow="pedestrian" oneway="1" width="2.00"/>
    <type id="highway.tertiary" priority="10" numLanes="1" speed="22.22" disallow="tram rail_urban rail rail_electric rail_fast ship" oneway="0"/>
    <type id="highway.tertiary_link" priority="5" numLanes="1" speed="22.22" disallow="tram rail_urban rail rail_electric rail_fast ship" oneway="0"/>
    <type id="highway.track" priority="1" numLanes="1" speed="5.56" allow="pedestrian motorcycle moped bicycle" oneway="0"/>
    <type id="highway.trunk" priority="13" numLanes="2" speed="27.78" disallow="pedestrian bicycle tram rail_urban rail rail_electric rail_fast ship" oneway="0"/>
    <type id="highway.trunk_link" priority="8" numLanes="1" speed="22.22" disallow="pedestrian bicycle tram rail_urban rail rail_electric rail_fast ship" oneway="0"/>
    <type id="highway.unclassified" priority="4" numLanes="1" speed="13.89" disallow="tram rail_urban rail rail_electric rail_fast ship" oneway="0"/>
    <type id="highway.unsurfaced" priority="1" numLanes="1" speed="8.33" disallow="tram rail_urban rail rail_electric rail_fast ship" oneway="0"/>
    <type id="railway.highspeed" priority="21" numLanes="1" speed="69.44" allow="rail_fast" oneway="1"/>
    <type id="railway.light_rail" priority="19" numLanes="1" speed="27.78" allow="rail_urban" oneway="1"/>
    <type id="railway.preserved" priority="16" numLanes="1" speed="27.78" allow="rail" oneway="1"/>
    <type id="railway.rail" priority="20" numLanes="1" speed="44.44" allow="rail" oneway="1"/>
    <type id="railway.subway" priority="18" numLanes="1" speed="27.78" allow="rail_urban" oneway="1"/>
    <type id="railway.tram" priority="17" numLanes="1" speed="13.89" allow="tram" oneway="1"/>

    <edge id=":1056691031-AddedOffRampNode_0" function="internal">
        <lane id=":1056691031-AddedOffRampNode_0_0" index="0" disallow="pedestrian bicycle tram rail_urban rail rail_electric rail_fast ship" speed="13.89" length="27.66" shape="3350.98,9434.96 3355.63,9462.16"/>
        <lane id=":1056691031-AddedOffRampNode_0_1" index="1" disallow="pedestrian bicycle tram rail_urban rail rail_electric rail_fast ship" speed="13.89" length="27.66" shape="3347.82,9435.43 3352.48,9462.77"/>
    </edge>
    <edge id=":1195834139_0" function="internal">
        <lane id=":1195834139_0_0" index="0" disallow="pedestrian bicycle tram rail_urban rail rail_electric rail_fast ship" speed="8.33" length="0.89" shape="3528.12,10470.80 3527.89,10470.93 3527.74,10471.03 3527.63,10471.18 3527.49,10471.40"/>
    </edge>
    <edge id=":1329260121_0" function="internal">
        <lane id=":1329260121_0_0" index="0" allow="bus" speed="7.28" length="4.19" shape="3766.52,11702.10 3766.73,11703.31 3767.03,11704.12 3767.56,11704.80 3768.48,11705.62"/>
    </edge>
    <edge id=":1329260121_1" function="internal">
        <lane id=":1329260121_1_0" index="0" allow="bus" speed="8.33" length="4.35" shape="3763.35,11702.54 3763.99,11706.84"/>
    </edge>
    <edge id=":1586401436_0" function="internal">
        <lane id=":1586401436_0_0" index="0" disallow="tram rail_urban rail rail_electric rail_fast ship" speed="8.33" length="0.10" shape="3600.29,10565.05 3600.29,10565.05"/>
    </edge>
    <edge id=":1613060546_0" function="internal">
        <lane id=":1613060546_0_0" index="0" disallow="pedestrian bicycle tram rail_urban rail rail_electric rail_fast ship" speed="6.51" length="8.96" shape="4461.73,15957.48 4459.36,15958.13 4457.76,15959.37 4456.93,15961.22 4456.86,15963.68"/>
    </edge>
    <edge id=":1613060546_1" function="internal">
        <lane id=":1613060546_1_0" index="0" disallow="pedestrian bicycle tram rail_urban rail rail_electric rail_fast ship" speed="6.60" length="9.04" shape="4454.88,15949.58 4455.62,15951.91 4456.95,15953.47 4458.85,15954.27 4461.33,15954.30"/>
    </edge>
    <edge id=":1613060546_2" function="internal">
        <lane id=":1613060546_2_0" index="0" disallow="pedestrian bicycle tram rail_urban rail rail_electric rail_fast ship" speed="13.89" length="14.08" shape="4454.88,15949.58 4456.86,15963.68"/>
        <lane id=":1613060546_2_1" index="1" disallow="pedestrian bicycle tram rail_urban rail rail_electric rail_fast ship" speed="13.89" length="14.08" shape="4451.73,15950.10 4453.68,15964.04"/>
        <lane id=":1613060546_2_2" index="2" disallow="pedestrian bicycle tram rail_urban rail rail_electric rail_fast ship" speed="13.89" length="14.08" shape="4448.57,15950.63 4450.50,15964.41"/>
    </edge>
    <edge id=":1613060582_0" function="internal">
        <lane id=":1613060582_0_0" index="0" disallow="bicycle tram rail_urban rail rail_electric rail_fast ship" speed="6.51" length="9.05" shape="4196.53,14863.29 4195.89,14860.90 4194.64,14859.29 4192.77,14858.45 4190.28,14858.40"/>
    </edge>
    <edge id=":1613060582_1" function="internal">
        <lane id=":1613060582_1_0" index="0" disallow="bicycle tram rail_urban rail rail_electric rail_fast ship" speed="13.89" length="14.42" shape="4196.53,14863.29 4194.77,14848.99"/>
        <lane id=":1613060582_1_1" index="1" disallow="bicycle tram rail_urban rail rail_electric rail_fast ship" speed="13.89" length="14.42" shape="4199.71,14862.91 4197.95,14848.59"/>
        <lane id=":1613060582_1_2" index="2" disallow="bicycle tram rail_urban rail rail_electric rail_fast ship" speed="13.89" length="14.42" shape="4202.89,14862.52 4201.12,14848.19"/>
    </edge>
    <edge id=":1613060582_4" function="internal">
        <lane id=":1613060582_4_0" index="0" disallow="bicycle tram rail_urban rail rail_electric rail_fast ship" speed="6.49" length="9.03" shape="4189.90,14855.22 4192.30,14854.58 4193.91,14853.33 4194.73,14851.46 4194.77,14848.99"/>
    </edge>
    <edge id=":1884654126_0" function="internal">
        <lane id=":1884654126_0_0" index="0" allow="bus" speed="5.56" length="0.29" shape="3576.50,11103.14 3576.44,11102.86"/>
    </edge>
    <edge id=":1884659407_0" function="internal">
        <lane id=":1884659407_0_0" index="0" disallow="tram rail_urban rail rail_electric rail_fast ship" speed="3.65" length="4.67" shape="3420.87,10959.38 3419.53,10958.86 3418.97,10958.17 3419.18,10957.30 3420.18,10956.26"/>
    </edge>
    <edge id=":1884659408_0" function="internal">
        <lane id=":1884659408_0_0" index="0" disallow="tram rail_urban rail rail_electric rail_fast ship" speed="8.33" length="0.26" shape="3460.94,10950.45 3460.69,10950.50"/>
    </edge>
    <edge id=":1884659408_1" function="internal">
        <lane id=":1884659408_1_0" index="0" disallow="tram rail_urban rail rail_electric rail_fast ship" speed="3.65" length="2.34" shape="3460.94,10950.45 3459.60,10949.91 3459.04,10949.21"/>
    </edge>
    <edge id=":1884659408_4" function="internal">
        <lane id=":1884659408_4_0" index="0" disallow="tram rail_urban rail rail_electric rail_fast ship" speed="3.65" length="2.34" shape="3459.04,10949.21 3459.27,10948.34 3460.28,10947.31"/>
    </edge>
    <edge id=":1884659408_2" function="internal">
        <lane id=":1884659408_2_0" index="0" disallow="tram rail_urban rail rail_electric rail_fast ship" speed="8.33" length="0.31" shape="3459.98,10947.38 3460.28,10947.31"/>
    </edge>
    <edge id=":1884659408_3" function="internal">
        <lane id=":1884659408_3_0" index="0" disallow="tram rail_urban rail rail_electric rail_fast ship" speed="3.65" length="2.34" shape="3459.98,10947.38 3461.32,10947.89 3461.89,10948.59"/>
    </edge>
    <edge id=":1884659408_5" function="internal">
        <lane id=":1884659408_5_0" index="0" disallow="tram rail_urban rail rail_electric rail_fast ship" speed="3.65" length="2.34" shape="3461.89,10948.59 3461.68,10949.46 3460.69,10950.50"/>
    </edge>
    <edge id=":2044482807_0" function="internal">
        <lane id=":2044482807_0_0" index="0" disallow="tram rail_urban rail rail_electric rail_fast ship" speed="8.33" length="8.05" shape="3399.70,10231.37 3401.89,10230.46 3403.35,10229.62 3404.47,10228.41 3405.66,10226.39"/>
    </edge>
    <edge id=":2078243082_0" function="internal">
        <lane id=":2078243082_0_0" index="0" disallow="pedestrian bicycle tram rail_urban rail rail_electric rail_fast ship" speed="22.22" length="8.16" shape="4778.45,18232.97 4778.91,18240.99"/>
        <lane id=":2078243082_0_1" index="1" disallow="pedestrian bicycle tram rail_urban rail rail_electric rail_fast ship" speed="22.22" length="8.16" shape="4775.26,18233.18 4775.71,18241.19"/>
        <lane id=":2078243082_0_2" index="2" disallow="pedestrian bicycle tram rail_urban rail rail_electric rail_fast ship" speed="22.22" length="8.16" shape="4772.07,18233.40 4772.52,18241.38"/>
        <lane id=":2078243082_0_3" index="3" disallow="pedestrian bicycle tram rail_urban rail rail_electric rail_fast ship" speed="22.22" length="8.16" shape="4768.87,18233.61 4769.32,18241.57"/>
        <lane id=":2078243082_0_4" index="4" disallow="pedestrian bicycle tram rail_urban rail rail_electric rail_fast ship" speed="22.22" length="8.16" shape="4768.87,18233.61 4768.53,18236.09 4767.51,18237.68 4766.49,18239.28 4766.13,18241.76"/>
    </edge>
    <edge id=":2514638260_0" function="internal">
        <lane id=":2514638260_0_0" index="0" disallow="pedestrian bicycle tram rail_urban rail rail_electric rail_fast ship" speed="22.22" length="19.06" shape="4905.77,18834.33 4912.09,18852.31"/>
        <lane id=":2514638260_0_1" index="1" disallow="pedestrian bicycle tram rail_urban rail rail_electric rail_fast ship" speed="22.22" length="19.06" shape="4902.76,18835.42 4909.08,18853.40"/>
        <lane id=":2514638260_0_2" index="2" disallow="pedestrian bicycle tram rail_urban rail rail_electric rail_fast ship" speed="22.22" length="19.06" shape="4899.75,18836.51 4906.07,18854.50"/>
        <lane id=":2514638260_0_3" index="3" disallow="pedestrian bicycle tram rail_urban rail rail_electric rail_fast ship" speed="22.22" length="19.06" shape="4896.74,18837.60 4903.05,18855.59"/>
    </edge>
    <edge id=":2514638260_4" function="internal">
        <lane id=":2514638260_4_0" index="0" disallow="pedestrian bicycle tram rail_urban rail rail_electric rail_fast ship" speed="15.27" length="18.64" shape="4893.73,18838.69 4895.94,18844.43 4897.73,18848.91 4899.00,18852.69 4899.62,18856.32"/>
    </edge>
    <edge id=":259665451_0" function="internal">
        <lane id=":259665451_0_0" index="0" disallow="pedestrian bicycle tram rail_urban rail rail_electric rail_fast ship" speed="13.89" length="2.97" shape="3453.79,10514.06 3454.15,10511.12"/>
        <lane id=":259665451_0_1" index="1" disallow="pedestrian bicycle tram rail_urban rail rail_electric rail_fast ship" speed="13.89" length="2.97" shape="3456.96,10514.46 3457.33,10511.50"/>
    </edge>
    <edge id=":259665451_2" function="internal">
        <lane id=":259665451_2_0" index="0" disallow="pedestrian bicycle tram rail_urban rail rail_electric rail_fast ship" speed="13.89" length="3.03" shape="3460.13,10514.87 3460.57,10511.90"/>
        <lane id=":259665451_2_1" index="1" disallow="pedestrian bicycle tram rail_urban rail rail_electric rail_fast ship" speed="13.89" length="3.03" shape="3463.31,10515.28 3463.75,10512.28"/>
        <lane id=":259665451_2_2" index="2" disallow="pedestrian bicycle tram rail_urban rail rail_electric rail_fast ship" speed="13.89" length="3.03" shape="3466.48,10515.68 3466.93,10512.67"/>
    </edge>
    <edge id=":259705340_0" function="internal">
        <lane id=":259705340_0_0" index="0" disallow="pedestrian bicycle tram rail_urban rail rail_electric rail_fast ship" speed="11.11" length="21.46" shape="3497.13,10394.88 3498.24,10401.98 3499.16,10407.67 3500.28,10412.15 3501.99,10415.64"/>
    </edge>
    <edge id=":259705340_1" function="internal">
        <lane id=":259705340_1_0" index="0" disallow="pedestrian bicycle tram rail_urban rail rail_electric rail_fast ship" speed="13.89" length="20.77" shape="3493.98,10395.50 3498.16,10416.08"/>
        <lane id=":259705340_1_1" index="1" disallow="pedestrian bicycle tram rail_urban rail rail_electric rail_fast ship" speed="13.89" length="20.77" shape="3490.84,10396.12 3494.92,10416.25"/>
    </edge>
    <edge id=":259705354_0" function="internal">
        <lane id=":259705354_0_0" index="0" disallow="pedestrian bicycle tram rail_urban rail rail_electric rail_fast ship" speed="13.89" length="8.24" shape="3778.29,11869.31 3778.26,11871.72 3777.77,11873.38 3777.31,11875.03 3777.38,11877.42"/>
    </edge>
    <edge id=":259705354_1" function="internal">
        <lane id=":259705354_1_0" index="0" allow="private emergency authority army vip passenger hov taxi bus delivery truck trailer motorcycle moped evehicle custom1 custom2" speed="13.89" length="8.00" shape="3776.18,11869.62 3777.38,11877.42"/>
        <lane id=":259705354_1_1" index="1" allow="private emergency authority army vip passenger hov taxi bus delivery truck trailer motorcycle moped evehicle custom1 custom2" speed="13.89" length="8.00" shape="3773.01,11870.08 3774.22,11877.93"/>
        <lane id=":259705354_1_2" index="2" allow="private emergency authority army vip passenger hov taxi bus delivery truck trailer motorcycle moped evehicle custom1 custom2" speed="13.89" length="8.00" shape="3769.84,11870.54 3771.06,11878.45"/>
        <lane id=":259705354_1_3" index="3" allow="private emergency authority army vip passenger hov taxi bus delivery truck trailer motorcycle moped evehicle custom1 custom2" speed="13.89" length="8.00" shape="3766.68,11871.01 3767.90,11878.96"/>
        <lane id=":259705354_1_4" index="4" allow="coach" speed="13.89" length="8.00" shape="3763.51,11871.47 3764.74,11879.47"/>
    </edge>
    <edge id=":260627404_0" function="internal">
        <lane id=":260627404_0_0" index="0" disallow="bicycle tram rail_urban rail rail_electric rail_fast ship" speed="13.89" length="9.44" shape="3881.24,13021.33 3879.74,13011.85"/>
        <lane id=":260627404_0_1" index="1" disallow="bicycle tram rail_urban rail rail_electric rail_fast ship" speed="13.89" length="9.44" shape="3884.40,13020.83 3882.92,13011.50"/>
        <lane id=":260627404_0_2" index="2" disallow="bicycle tram rail_urban rail rail_electric rail_fast ship" speed="13.89" length="9.44" shape="3887.56,13020.32 3886.10,13011.16"/>
    </edge>
    <edge id=":260627404_3" function="internal">
        <lane id=":260627404_3_0" index="0" allow="bus" speed="11.11" length="8.45" shape="3891.03,13019.03 3890.16,13016.69 3889.74,13015.02 3889.53,13013.31 3889.28,13010.81"/>
    </edge>
    <edge id=":267416092_0" function="internal">
        <lane id=":267416092_0_0" index="0" disallow="bicycle tram rail_urban rail rail_electric rail_fast ship" speed="13.89" length="18.58" shape="3981.07,13565.34 3979.39,13546.69"/>
        <lane id=":267416092_0_1" index="1" disallow="bicycle tram rail_urban rail rail_electric rail_fast ship" speed="13.89" length="18.58" shape="3984.24,13564.91 3982.58,13546.40"/>
        <lane id=":267416092_0_2" index="2" disallow="bicycle tram rail_urban rail rail_electric rail_fast ship" speed="13.89" length="18.58" shape="3987.42,13564.49 3985.76,13546.12"/>
    </edge>
    <edge id=":267416092_3" function="internal">
        <lane id=":267416092_3_0" index="0" disallow="pedestrian bicycle tram rail_urban rail rail_electric rail_fast ship" speed="11.11" length="18.02" shape="3990.59,13564.06 3989.80,13558.20 3989.28,13553.62 3989.07,13549.78 3989.23,13546.13"/>
    </edge>
    <edge id=":267416105_0" function="internal">
        <lane id=":267416105_0_0" index="0" disallow="pedestrian bicycle tram rail_urban rail rail_electric rail_fast ship" speed="13.89" length="9.95" shape="4209.42,14543.71 4210.83,14553.64"/>
        <lane id=":267416105_0_1" index="1" disallow="pedestrian bicycle tram rail_urban rail rail_electric rail_fast ship" speed="13.89" length="9.95" shape="4206.27,14544.24 4207.66,14554.09"/>
        <lane id=":267416105_0_2" index="2" disallow="pedestrian bicycle tram rail_urban rail rail_electric rail_fast ship" speed="13.89" length="9.95" shape="4203.11,14544.76 4204.49,14554.54"/>
    </edge>
    <edge id=":267416105_3" function="internal">
        <lane id=":267416105_3_0" index="0" disallow="pedestrian bicycle tram rail_urban rail rail_electric rail_fast ship" speed="11.11" length="9.36" shape="4199.96,14545.29 4200.55,14548.01 4201.05,14549.91 4201.20,14551.79 4200.76,14554.48"/>
    </edge>
    <edge id=":267416119_0" function="internal">
        <lane id=":267416119_0_0" index="0" disallow="bicycle tram rail_urban rail rail_electric rail_fast ship" speed="13.89" length="11.12" shape="4147.91,14563.89 4146.56,14552.96"/>
        <lane id=":267416119_0_1" index="1" disallow="bicycle tram rail_urban rail rail_electric rail_fast ship" speed="13.89" length="11.12" shape="4151.08,14563.50 4149.72,14552.46"/>
        <lane id=":267416119_0_2" index="2" disallow="bicycle tram rail_urban rail rail_electric rail_fast ship" speed="13.89" length="11.12" shape="4154.26,14563.11 4152.88,14551.96"/>
    </edge>
    <edge id=":267416119_3" function="internal">
        <lane id=":267416119_3_0" index="0" disallow="pedestrian bicycle tram rail_urban rail rail_electric rail_fast ship" speed="11.11" length="12.39" shape="4158.39,14563.58 4157.40,14560.58 4156.90,14558.06 4156.56,14555.27 4156.04,14551.46"/>
    </edge>
    <edge id=":267416164_0" function="internal">
        <lane id=":267416164_0_0" index="0" disallow="bicycle tram rail_urban rail rail_electric rail_fast ship" speed="6.92" length="9.60" shape="4518.81,16846.87 4518.01,16844.55 4516.56,16842.97 4514.46,16842.12 4511.73,16842.01"/>
    </edge>
    <edge id=":267416164_1" function="internal">
        <lane id=":267416164_1_0" index="0" disallow="bicycle tram rail_urban rail rail_electric rail_fast ship" speed="13.89" length="14.52" shape="4518.81,16846.87 4516.10,16832.66"/>
        <lane id=":267416164_1_1" index="1" disallow="bicycle tram rail_urban rail rail_electric rail_fast ship" speed="13.89" length="14.52" shape="4521.96,16846.30 4519.24,16832.03"/>
        <lane id=":267416164_1_2" index="2" disallow="bicycle tram rail_urban rail rail_electric rail_fast ship" speed="13.89" length="14.52" shape="4525.11,16845.73 4522.37,16831.40"/>
    </edge>
    <edge id=":267416164_4" function="internal">
        <lane id=":267416164_4_0" index="0" disallow="bicycle tram rail_urban rail rail_electric rail_fast ship" speed="6.27" length="9.04" shape="4511.46,16838.82 4513.92,16838.25 4515.51,16837.04 4516.23,16835.17 4516.10,16832.66"/>
    </edge>
    <edge id=":267416176_0" function="internal">
        <lane id=":267416176_0_0" index="0" disallow="bicycle tram rail_urban rail rail_electric rail_fast ship" speed="8.49" length="7.44" shape="4076.45,14133.49 4075.98,14132.21 4074.99,14130.90 4073.49,14129.58 4071.47,14128.23"/>
    </edge>
    <edge id=":267416176_1" function="internal">
        <lane id=":267416176_1_0" index="0" disallow="bicycle tram rail_urban rail rail_electric rail_fast ship" speed="13.89" length="7.88" shape="4076.45,14133.49 4075.15,14125.71"/>
        <lane id=":267416176_1_1" index="1" disallow="bicycle tram rail_urban rail rail_electric rail_fast ship" speed="13.89" length="7.88" shape="4079.61,14132.96 4078.30,14125.19"/>
        <lane id=":267416176_1_2" index="2" disallow="bicycle tram rail_urban rail rail_electric rail_fast ship" speed="13.89" length="7.88" shape="4082.76,14132.42 4081.46,14124.66"/>
    </edge>
    <edge id=":267416233_0" function="internal">
        <lane id=":267416233_0_0" index="0" disallow="pedestrian bicycle tram rail_urban rail rail_electric rail_fast ship" speed="13.89" length="22.22" shape="4037.04,13528.45 4040.77,13550.27"/>
        <lane id=":267416233_0_1" index="1" disallow="pedestrian bicycle tram rail_urban rail rail_electric rail_fast ship" speed="13.89" length="22.22" shape="4033.90,13529.06 4037.65,13550.96"/>
        <lane id=":267416233_0_2" index="2" disallow="pedestrian bicycle tram rail_urban rail rail_electric rail_fast ship" speed="13.89" length="22.22" shape="4030.76,13529.67 4034.52,13551.65"/>
    </edge>
    <edge id=":267416233_3" function="internal">
        <lane id=":267416233_3_0" index="0" disallow="pedestrian bicycle tram rail_urban rail rail_electric rail_fast ship" speed="11.11" length="22.27" shape="4026.73,13530.89 4028.67,13534.44 4030.67,13538.84 4032.65,13544.45 4034.52,13551.65"/>
    </edge>
    <edge id=":267416278_0" function="internal">
        <lane id=":267416278_0_0" index="0" disallow="bicycle tram rail_urban rail rail_electric rail_fast ship" speed="5.99" length="9.08" shape="4296.40,15489.00 4295.63,15486.51 4294.29,15485.11 4292.37,15484.78 4289.89,15485.53"/>
    </edge>
    <edge id=":267416278_1" function="internal">
        <lane id=":267416278_1_0" index="0" disallow="bicycle tram rail_urban rail rail_electric rail_fast ship" speed="13.89" length="14.71" shape="4296.40,15489.00 4294.01,15474.52"/>
        <lane id=":267416278_1_1" index="1" disallow="bicycle tram rail_urban rail rail_electric rail_fast ship" speed="13.89" length="14.71" shape="4299.56,15488.49 4297.17,15473.98"/>
        <lane id=":267416278_1_2" index="2" disallow="bicycle tram rail_urban rail rail_electric rail_fast ship" speed="13.89" length="14.71" shape="4302.72,15487.99 4300.32,15473.44"/>
    </edge>
    <edge id=":267416278_4" function="internal">
        <lane id=":267416278_4_0" index="0" disallow="bicycle tram rail_urban rail rail_electric rail_fast ship" speed="7.75" length="10.58" shape="4288.54,15482.63 4291.27,15481.01 4293.09,15479.13 4294.00,15476.96 4294.01,15474.52"/>
    </edge>
    <edge id=":273536122_0" function="internal">
        <lane id=":273536122_0_0" index="0" disallow="tram rail_urban rail rail_electric rail_fast ship" speed="11.11" length="31.15" shape="3163.13,10421.86 3172.88,10419.37 3180.48,10418.00 3186.96,10416.67 3193.37,10414.26"/>
        <lane id=":273536122_0_1" index="1" disallow="tram rail_urban rail rail_electric rail_fast ship" speed="11.11" length="31.15" shape="3164.06,10424.92 3173.74,10422.46 3181.28,10421.15 3187.72,10419.85 3194.12,10417.46"/>
    </edge>
    <edge id=":273536122_2" function="internal">
        <lane id=":273536122_2_0" index="0" disallow="tram rail_urban rail rail_electric rail_fast ship" speed="13.89" length="30.53" shape="3165.00,10427.98 3174.48,10425.26 3181.76,10423.51 3188.14,10422.25 3194.90,10421.02"/>
        <lane id=":273536122_2_1" index="1" disallow="tram rail_urban rail rail_electric rail_fast ship" speed="13.89" length="30.53" shape="3165.93,10431.04 3175.28,10428.36 3182.44,10426.63 3188.73,10425.39 3195.45,10424.17"/>
    </edge>
    <edge id=":273536126_0" function="internal">
        <lane id=":273536126_0_0" index="0" disallow="pedestrian bicycle tram rail_urban rail rail_electric rail_fast ship" speed="11.11" length="3.21" shape="3326.12,10391.10 3327.07,10391.02 3327.71,10390.94 3328.35,10390.83 3329.29,10390.63"/>
    </edge>
    <edge id=":273536126_1" function="internal">
        <lane id=":273536126_1_0" index="0" disallow="tram rail_urban rail rail_electric rail_fast ship" speed="13.89" length="3.31" shape="3326.70,10394.49 3329.96,10393.76"/>
        <lane id=":273536126_1_1" index="1" disallow="tram rail_urban rail rail_electric rail_fast ship" speed="13.89" length="3.31" shape="3327.44,10397.61 3330.63,10396.89"/>
    </edge>
    <edge id=":273536129_0" function="internal">
        <lane id=":273536129_0_0" index="0" disallow="pedestrian bicycle tram rail_urban rail rail_electric rail_fast ship" speed="12.36" length="13.35" shape="3568.22,10330.66 3572.13,10329.83 3574.97,10329.20 3577.28,10327.85 3579.61,10324.89"/>
        <lane id=":273536129_0_1" index="1" disallow="pedestrian bicycle tram rail_urban rail rail_electric rail_fast ship" speed="12.74" length="14.15" shape="3569.04,10333.76 3573.22,10332.96 3576.30,10332.45 3578.82,10331.19 3581.33,10328.14"/>
    </edge>
    <edge id=":273536129_2" function="internal">
        <lane id=":273536129_2_0" index="0" disallow="tram rail_urban rail rail_electric rail_fast ship" speed="27.78" length="14.04" shape="3569.86,10336.85 3573.76,10335.52 3576.28,10334.18 3578.78,10332.78 3582.64,10331.30"/>
        <lane id=":273536129_2_1" index="1" disallow="tram rail_urban rail rail_electric rail_fast ship" speed="27.78" length="14.04" shape="3570.68,10339.94 3574.62,10338.60 3577.16,10337.25 3579.69,10335.85 3583.59,10334.36"/>
    </edge>
    <edge id=":273536190_0" function="internal">
        <lane id=":273536190_0_0" index="0" allow="bus" speed="10.95" length="9.68" shape="2683.04,10595.29 2680.81,10596.71 2679.94,10598.69 2679.08,10600.72 2676.89,10602.26"/>
    </edge>
    <edge id=":273536193_0" function="internal">
        <lane id=":273536193_0_0" index="0" disallow="pedestrian bicycle tram rail_urban rail rail_electric rail_fast ship" speed="11.11" length="3.35" shape="3343.41,10416.41 3342.44,10416.63 3341.78,10416.82 3341.15,10417.07 3340.25,10417.48"/>
    </edge>
    <edge id=":273536193_1" function="internal">
        <lane id=":273536193_1_0" index="0" disallow="tram rail_urban rail rail_electric rail_fast ship" speed="13.89" length="3.54" shape="3342.73,10413.29 3339.37,10414.07"/>
        <lane id=":273536193_1_1" index="1" disallow="tram rail_urban rail rail_electric rail_fast ship" speed="13.89" length="3.54" shape="3342.05,10410.16 3338.61,10410.96"/>