<?xml version="1.0" encoding="UTF-8"?>

<!-- generated on 2023-01-10 15:33:56 by Eclipse SUMO GUI Version 1.15.0
-->

<configuration xmlns:xsi="http://www.w3.org/2001/XMLSchema-instance" xsi:noNamespaceSchemaLocation="http://sumo.dlr.de/xsd/sumoConfiguration.xsd">

    <input>
        <net-file value="autonorte.net.xml"/>
        <route-files value="autonorte.rou.xml"/>
        <additional-files value=" autonorte.additionals.xml, autonorte.poly.xml.gz"/>
    </input>

</configuration>
